
#######################################################################
#
#                 Cambridge Crystallographic Data Centre
#                                CCDC 
#
#######################################################################
#
# If this CIF has been generated from an entry in the Cambridge 
# Structural Database, then it will include bibliographic, chemical, 
# crystal, experimental, refinement or atomic coordinate data resulting 
# from the CCDC's data processing and validation procedures.
#
#######################################################################

data_notFPAM
_symmetry_cell_setting           monoclinic
_symmetry_space_group_name_H-M   'P 21/c'
_symmetry_Int_Tables_number      14
_space_group_name_Hall           '-P 2ybc'
loop_
_symmetry_equiv_pos_site_id
_symmetry_equiv_pos_as_xyz
1 x,y,z
2 -x,1/2+y,1/2-z
3 -x,-y,-z
4 x,1/2-y,1/2+z
_cell_length_a                   26.6592(19)
_cell_length_b                   7.9007(2)
_cell_length_c                   23.2430(6)
_cell_angle_alpha                90
_cell_angle_beta                 94.084(7)
_cell_angle_gamma                90
_cell_volume                     4883.16
loop_
_atom_site_label
_atom_site_type_symbol
_atom_site_fract_x
_atom_site_fract_y
_atom_site_fract_z
F1 F 0.79769 1.3611 0.30335
F2 F 0.87735 1.392 0.30863
F3 F 0.83384 1.4606 0.23198
O1 O 1.00664 1.0395 0.09876
O2 O 1.0518 0.8377 0.05966
H1 H 1.0579 0.9176 0.0374
N1 N 0.93834 0.9368 0.17165
H2 H 0.9508 1.0198 0.1518
C1 C 0.8385 1.3436 0.2735
C2 C 0.84393 1.1698 0.24985
C3 C 0.80621 1.0512 0.25259
H3 H 0.7764 1.0777 0.2709
C4 C 0.81234 0.8928 0.2283
H4 H 0.7868 0.8097 0.2304
C5 C 0.85518 0.8555 0.20117
H5 H 0.8583 0.7484 0.1832
C6 C 0.89403 0.9725 0.19967
C7 C 0.88819 1.1314 0.22374
H6 H 0.9141 1.2136 0.2225
C8 C 1.01974 0.8898 0.09705
C9 C 1.00285 0.7571 0.13522
C10 C 0.96412 0.7834 0.17244
C11 C 0.95387 0.6558 0.21145
H7 H 0.9289 0.6737 0.238
C12 C 0.97954 0.5042 0.21194
H8 H 0.9721 0.4194 0.239
C13 C 1.01609 0.4733 0.1735
H9 H 1.0328 0.3672 0.1732
C14 C 1.0274 0.5991 0.13614
H10 H 1.0526 0.5794 0.11
F4 F 0.65407 1.2284 0.11476
F5 F 0.72939 1.2661 0.15104
F6 F 0.70994 1.3341 0.0633
O3 O 0.9129 0.917 0.00155
O4 O 0.95695 0.7105 -0.03716
H11 H 0.969 0.7935 -0.0541
N2 N 0.83307 0.8151 0.05877
H12 H 0.8524 0.9041 0.0547
C15 C 0.70239 1.2158 0.10327
C16 C 0.71623 1.0417 0.08428
C17 C 0.67996 0.9236 0.06772
H13 H 0.6453 0.9499 0.0695
C18 C 0.69442 0.7663 0.04849
H14 H 0.6695 0.6843 0.0373
C19 C 0.74464 0.7275 0.04546
H15 H 0.7542 0.6202 0.0314
C20 C 0.76696 1.0047 0.08262
H16 H 0.7916 1.0865 0.0947
C21 C 0.92337 0.7648 -0.0017
C22 C 0.90134 0.6306 0.03173
C23 C 0.85663 0.6584 0.06018
C24 C 0.83808 0.5253 0.09227
H17 H 0.8083 0.5414 0.1117
C25 C 0.86204 0.3727 0.09613
H18 H 0.8488 0.2845 0.1183
C26 C 0.90597 0.3446 0.06776
H19 H 0.9226 0.2384 0.0707
C27 C 0.92438 0.4721 0.03589
H20 H 0.9537 0.4525 0.0159
C28 C 0.78153 0.8468 0.06313
F7 F 0.77371 0.7602 0.84589
F8 F 0.80819 0.8057 0.93035
F9 F 0.85162 0.6995 0.865
O5 O 0.54445 0.2157 1.02014
H21 H 0.5352 0.2987 1.0394
O6 O 0.59703 0.4109 0.98838
N3 N 0.67549 0.2977 0.93325
H22 H 0.6571 0.3879 0.9388
C29 C 0.80639 0.6942 0.88665
C30 C 0.79224 0.5215 0.9047
C31 C 0.82863 0.4015 0.92107
H23 H 0.8633 0.4272 0.9192
C32 C 0.81396 0.2444 0.9401
H24 H 0.8389 0.1621 0.9507
C33 C 0.76405 0.2044 0.94406
H25 H 0.7546 0.0964 0.9576
C34 C 0.74141 0.4834 0.90763
H26 H 0.7165 0.5648 0.896
C35 C 0.58243 0.2624 0.98913
C36 C 0.60421 0.1228 0.95738
C37 C 0.65057 0.1452 0.93106
C38 C 0.66858 0.0073 0.90019
H27 H 0.6989 0.0185 0.8814
C39 C 0.64294 -0.1425 0.89697
H28 H 0.656 -0.2336 0.876
C40 C 0.59798 -0.166 0.92364
H29 H 0.5808 -0.2713 0.9213
C41 C 0.57958 -0.0318 0.95335
H30 H 0.5491 -0.0453 0.9717
C42 C 0.72737 0.3265 0.92762
F10 F 0.60009 0.9166 0.72068
F11 F 0.6742 0.9208 0.75826
F12 F 0.65923 0.8308 0.67329
O7 O 0.43632 0.3399 0.9514
H31 H 0.4309 0.4203 0.9738
O8 O 0.48879 0.529 0.91719
N4 N 0.54998 0.4206 0.83672
H32 H 0.5401 0.5036 0.8585
C43 C 0.64288 0.8303 0.7253
C44 C 0.63678 0.6546 0.74819
C45 C 0.59671 0.6178 0.78115
H33 H 0.5729 0.7031 0.7884
C46 C 0.59146 0.4547 0.80363
C47 C 0.62803 0.3343 0.79502
H34 H 0.6261 0.2257 0.8123
C48 C 0.66734 0.3718 0.76138
H35 H 0.6914 0.2868 0.7543
C49 C 0.67215 0.5314 0.73787
H36 H 0.6993 0.5564 0.715
C50 C 0.47137 0.3851 0.9166
C51 C 0.4864 0.2483 0.879
C52 C 0.52318 0.2686 0.83837
C53 C 0.53009 0.1371 0.79988
H37 H 0.5533 0.1519 0.7711
C54 C 0.50453 -0.0131 0.80209
H38 H 0.5103 -0.0998 0.775
C55 C 0.47018 -0.0395 0.84366
H39 H 0.4532 -0.1447 0.8464
C56 C 0.46167 0.0911 0.88051
H40 H 0.4379 0.0747 0.9085
loop_
_geom_bond_atom_site_label_1
_geom_bond_atom_site_label_2
_geom_bond_site_symmetry_1
_geom_bond_site_symmetry_2
F1 C1 1_555 1_555
F2 C1 1_555 1_555
F3 C1 1_555 1_555
O1 C8 1_555 1_555
O2 H1 1_555 1_555
O2 C8 1_555 1_555
N1 H2 1_555 1_555
N1 C6 1_555 1_555
N1 C10 1_555 1_555
C1 C2 1_555 1_555
C2 C3 1_555 1_555
C2 C7 1_555 1_555
C3 H3 1_555 1_555
C3 C4 1_555 1_555
C4 H4 1_555 1_555
C4 C5 1_555 1_555
C5 H5 1_555 1_555
C5 C6 1_555 1_555
C6 C7 1_555 1_555
C7 H6 1_555 1_555
C8 C9 1_555 1_555
C9 C10 1_555 1_555
C9 C14 1_555 1_555
C10 C11 1_555 1_555
C11 H7 1_555 1_555
C11 C12 1_555 1_555
C12 H8 1_555 1_555
C12 C13 1_555 1_555
C13 H9 1_555 1_555
C13 C14 1_555 1_555
C14 H10 1_555 1_555
F4 C15 1_555 1_555
F5 C15 1_555 1_555
F6 C15 1_555 1_555
O3 C21 1_555 1_555
O4 H11 1_555 1_555
O4 C21 1_555 1_555
N2 H12 1_555 1_555
N2 C23 1_555 1_555
N2 C28 1_555 1_555
C15 C16 1_555 1_555
C16 C17 1_555 1_555
C16 C20 1_555 1_555
C17 H13 1_555 1_555
C17 C18 1_555 1_555
C18 H14 1_555 1_555
C18 C19 1_555 1_555
C19 H15 1_555 1_555
C19 C28 1_555 1_555
C20 H16 1_555 1_555
C20 C28 1_555 1_555
C21 C22 1_555 1_555
C22 C23 1_555 1_555
C22 C27 1_555 1_555
C23 C24 1_555 1_555
C24 H17 1_555 1_555
C24 C25 1_555 1_555
C25 H18 1_555 1_555
C25 C26 1_555 1_555
C26 H19 1_555 1_555
C26 C27 1_555 1_555
C27 H20 1_555 1_555
F7 C29 1_555 1_555
F8 C29 1_555 1_555
F9 C29 1_555 1_555
O5 H21 1_555 1_555
O5 C35 1_555 1_555
O6 C35 1_555 1_555
N3 H22 1_555 1_555
N3 C37 1_555 1_555
N3 C42 1_555 1_555
C29 C30 1_555 1_555
C30 C31 1_555 1_555
C30 C34 1_555 1_555
C31 H23 1_555 1_555
C31 C32 1_555 1_555
C32 H24 1_555 1_555
C32 C33 1_555 1_555
C33 H25 1_555 1_555
C33 C42 1_555 1_555
C34 H26 1_555 1_555
C34 C42 1_555 1_555
C35 C36 1_555 1_555
C36 C37 1_555 1_555
C36 C41 1_555 1_555
C37 C38 1_555 1_555
C38 H27 1_555 1_555
C38 C39 1_555 1_555
C39 H28 1_555 1_555
C39 C40 1_555 1_555
C40 H29 1_555 1_555
C40 C41 1_555 1_555
C41 H30 1_555 1_555
F10 C43 1_555 1_555
F11 C43 1_555 1_555
F12 C43 1_555 1_555
O7 H31 1_555 1_555
O7 C50 1_555 1_555
O8 C50 1_555 1_555
N4 H32 1_555 1_555
N4 C46 1_555 1_555
N4 C52 1_555 1_555
C43 C44 1_555 1_555
C44 C45 1_555 1_555
C44 C49 1_555 1_555
C45 H33 1_555 1_555
C45 C46 1_555 1_555
C46 C47 1_555 1_555
C47 H34 1_555 1_555
C47 C48 1_555 1_555
C48 H35 1_555 1_555
C48 C49 1_555 1_555
C49 H36 1_555 1_555
C50 C51 1_555 1_555
C51 C52 1_555 1_555
C51 C56 1_555 1_555
C52 C53 1_555 1_555
C53 H37 1_555 1_555
C53 C54 1_555 1_555
C54 H38 1_555 1_555
C54 C55 1_555 1_555
C55 H39 1_555 1_555
C55 C56 1_555 1_555
C56 H40 1_555 1_555

#END

#######################################################################
#
#                 Cambridge Crystallographic Data Centre
#                                CCDC 
#
#######################################################################
#
# If this CIF has been generated from an entry in the Cambridge 
# Structural Database, then it will include bibliographic, chemical, 
# crystal, experimental, refinement or atomic coordinate data resulting 
# from the CCDC's data processing and validation procedures.
#
#######################################################################

data_notFPAM
_symmetry_cell_setting           monoclinic
_symmetry_space_group_name_H-M   'P 21/c'
_symmetry_Int_Tables_number      14
_space_group_name_Hall           '-P 2ybc'
loop_
_symmetry_equiv_pos_site_id
_symmetry_equiv_pos_as_xyz
1 x,y,z
2 -x,1/2+y,1/2-z
3 -x,-y,-z
4 x,1/2-y,1/2+z
_cell_length_a                   26.6592(19)
_cell_length_b                   7.9007(2)
_cell_length_c                   23.2430(6)
_cell_angle_alpha                90
_cell_angle_beta                 94.084(7)
_cell_angle_gamma                90
_cell_volume                     4883.16
loop_
_atom_site_label
_atom_site_type_symbol
_atom_site_fract_x
_atom_site_fract_y
_atom_site_fract_z
F1 F 0.79769 1.3611 0.30335
F2 F 0.87735 1.392 0.30863
F3 F 0.83384 1.4606 0.23198
O1 O 1.00664 1.0395 0.09876
O2 O 1.0518 0.8377 0.05966
H1 H 1.0579 0.9176 0.0374
N1 N 0.93834 0.9368 0.17165
H2 H 0.9508 1.0198 0.1518
C1 C 0.8385 1.3436 0.2735
C2 C 0.84393 1.1698 0.24985
C3 C 0.80621 1.0512 0.25259
H3 H 0.7764 1.0777 0.2709
C4 C 0.81234 0.8928 0.2283
H4 H 0.7868 0.8097 0.2304
C5 C 0.85518 0.8555 0.20117
H5 H 0.8583 0.7484 0.1832
C6 C 0.89403 0.9725 0.19967
C7 C 0.88819 1.1314 0.22374
H6 H 0.9141 1.2136 0.2225
C8 C 1.01974 0.8898 0.09705
C9 C 1.00285 0.7571 0.13522
C10 C 0.96412 0.7834 0.17244
C11 C 0.95387 0.6558 0.21145
H7 H 0.9289 0.6737 0.238
C12 C 0.97954 0.5042 0.21194
H8 H 0.9721 0.4194 0.239
C13 C 1.01609 0.4733 0.1735
H9 H 1.0328 0.3672 0.1732
C14 C 1.0274 0.5991 0.13614
H10 H 1.0526 0.5794 0.11
F4 F 0.65407 1.2284 0.11476
F5 F 0.72939 1.2661 0.15104
F6 F 0.70994 1.3341 0.0633
O3 O 0.9129 0.917 0.00155
O4 O 0.95695 0.7105 -0.03716
H11 H 0.969 0.7935 -0.0541
N2 N 0.83307 0.8151 0.05877
H12 H 0.8524 0.9041 0.0547
C15 C 0.70239 1.2158 0.10327
C16 C 0.71623 1.0417 0.08428
C17 C 0.67996 0.9236 0.06772
H13 H 0.6453 0.9499 0.0695
C18 C 0.69442 0.7663 0.04849
H14 H 0.6695 0.6843 0.0373
C19 C 0.74464 0.7275 0.04546
H15 H 0.7542 0.6202 0.0314
C20 C 0.76696 1.0047 0.08262
H16 H 0.7916 1.0865 0.0947
C21 C 0.92337 0.7648 -0.0017
C22 C 0.90134 0.6306 0.03173
C23 C 0.85663 0.6584 0.06018
C24 C 0.83808 0.5253 0.09227
H17 H 0.8083 0.5414 0.1117
C25 C 0.86204 0.3727 0.09613
H18 H 0.8488 0.2845 0.1183
C26 C 0.90597 0.3446 0.06776
H19 H 0.9226 0.2384 0.0707
C27 C 0.92438 0.4721 0.03589
H20 H 0.9537 0.4525 0.0159
C28 C 0.78153 0.8468 0.06313
F7 F 0.77371 0.7602 0.84589
F8 F 0.80819 0.8057 0.93035
F9 F 0.85162 0.6995 0.865
O5 O 0.54445 0.2157 1.02014
H21 H 0.5352 0.2987 1.0394
O6 O 0.59703 0.4109 0.98838
N3 N 0.67549 0.2977 0.93325
H22 H 0.6571 0.3879 0.9388
C29 C 0.80639 0.6942 0.88665
C30 C 0.79224 0.5215 0.9047
C31 C 0.82863 0.4015 0.92107
H23 H 0.8633 0.4272 0.9192
C32 C 0.81396 0.2444 0.9401
H24 H 0.8389 0.1621 0.9507
C33 C 0.76405 0.2044 0.94406
H25 H 0.7546 0.0964 0.9576
C34 C 0.74141 0.4834 0.90763
H26 H 0.7165 0.5648 0.896
C35 C 0.58243 0.2624 0.98913
C36 C 0.60421 0.1228 0.95738
C37 C 0.65057 0.1452 0.93106
C38 C 0.66858 0.0073 0.90019
H27 H 0.6989 0.0185 0.8814
C39 C 0.64294 -0.1425 0.89697
H28 H 0.656 -0.2336 0.876
C40 C 0.59798 -0.166 0.92364
H29 H 0.5808 -0.2713 0.9213
C41 C 0.57958 -0.0318 0.95335
H30 H 0.5491 -0.0453 0.9717
C42 C 0.72737 0.3265 0.92762
F10 F 0.60009 0.9166 0.72068
F11 F 0.6742 0.9208 0.75826
F12 F 0.65923 0.8308 0.67329
O7 O 0.43632 0.3399 0.9514
H31 H 0.4309 0.4203 0.9738
O8 O 0.48879 0.529 0.91719
N4 N 0.54998 0.4206 0.83672
H32 H 0.5401 0.5036 0.8585
C43 C 0.64288 0.8303 0.7253
C44 C 0.63678 0.6546 0.74819
C45 C 0.59671 0.6178 0.78115
H33 H 0.5729 0.7031 0.7884
C46 C 0.59146 0.4547 0.80363
C47 C 0.62803 0.3343 0.79502
H34 H 0.6261 0.2257 0.8123
C48 C 0.66734 0.3718 0.76138
H35 H 0.6914 0.2868 0.7543
C49 C 0.67215 0.5314 0.73787
H36 H 0.6993 0.5564 0.715
C50 C 0.47137 0.3851 0.9166
C51 C 0.4864 0.2483 0.879
C52 C 0.52318 0.2686 0.83837
C53 C 0.53009 0.1371 0.79988
H37 H 0.5533 0.1519 0.7711
C54 C 0.50453 -0.0131 0.80209
H38 H 0.5103 -0.0998 0.775
C55 C 0.47018 -0.0395 0.84366
H39 H 0.4532 -0.1447 0.8464
C56 C 0.46167 0.0911 0.88051
H40 H 0.4379 0.0747 0.9085
loop_
_geom_bond_atom_site_label_1
_geom_bond_atom_site_label_2
_geom_bond_site_symmetry_1
_geom_bond_site_symmetry_2
F1 C1 1_555 1_555
F2 C1 1_555 1_555
F3 C1 1_555 1_555
O1 C8 1_555 1_555
O2 H1 1_555 1_555
O2 C8 1_555 1_555
N1 H2 1_555 1_555
N1 C6 1_555 1_555
N1 C10 1_555 1_555
C1 C2 1_555 1_555
C2 C3 1_555 1_555
C2 C7 1_555 1_555
C3 H3 1_555 1_555
C3 C4 1_555 1_555
C4 H4 1_555 1_555
C4 C5 1_555 1_555
C5 H5 1_555 1_555
C5 C6 1_555 1_555
C6 C7 1_555 1_555
C7 H6 1_555 1_555
C8 C9 1_555 1_555
C9 C10 1_555 1_555
C9 C14 1_555 1_555
C10 C11 1_555 1_555
C11 H7 1_555 1_555
C11 C12 1_555 1_555
C12 H8 1_555 1_555
C12 C13 1_555 1_555
C13 H9 1_555 1_555
C13 C14 1_555 1_555
C14 H10 1_555 1_555
F4 C15 1_555 1_555
F5 C15 1_555 1_555
F6 C15 1_555 1_555
O3 C21 1_555 1_555
O4 H11 1_555 1_555
O4 C21 1_555 1_555
N2 H12 1_555 1_555
N2 C23 1_555 1_555
N2 C28 1_555 1_555
C15 C16 1_555 1_555
C16 C17 1_555 1_555
C16 C20 1_555 1_555
C17 H13 1_555 1_555
C17 C18 1_555 1_555
C18 H14 1_555 1_555
C18 C19 1_555 1_555
C19 H15 1_555 1_555
C19 C28 1_555 1_555
C20 H16 1_555 1_555
C20 C28 1_555 1_555
C21 C22 1_555 1_555
C22 C23 1_555 1_555
C22 C27 1_555 1_555
C23 C24 1_555 1_555
C24 H17 1_555 1_555
C24 C25 1_555 1_555
C25 H18 1_555 1_555
C25 C26 1_555 1_555
C26 H19 1_555 1_555
C26 C27 1_555 1_555
C27 H20 1_555 1_555
F7 C29 1_555 1_555
F8 C29 1_555 1_555
F9 C29 1_555 1_555
O5 H21 1_555 1_555
O5 C35 1_555 1_555
O6 C35 1_555 1_555
N3 H22 1_555 1_555
N3 C37 1_555 1_555
N3 C42 1_555 1_555
C29 C30 1_555 1_555
C30 C31 1_555 1_555
C30 C34 1_555 1_555
C31 H23 1_555 1_555
C31 C32 1_555 1_555
C32 H24 1_555 1_555
C32 C33 1_555 1_555
C33 H25 1_555 1_555
C33 C42 1_555 1_555
C34 H26 1_555 1_555
C34 C42 1_555 1_555
C35 C36 1_555 1_555
C36 C37 1_555 1_555
C36 C41 1_555 1_555
C37 C38 1_555 1_555
C38 H27 1_555 1_555
C38 C39 1_555 1_555
C39 H28 1_555 1_555
C39 C40 1_555 1_555
C40 H29 1_555 1_555
C40 C41 1_555 1_555
C41 H30 1_555 1_555
F10 C43 1_555 1_555
F11 C43 1_555 1_555
F12 C43 1_555 1_555
O7 H31 1_555 1_555
O7 C50 1_555 1_555
O8 C50 1_555 1_555
N4 H32 1_555 1_555
N4 C46 1_555 1_555
N4 C52 1_555 1_555
C43 C44 1_555 1_555
C44 C45 1_555 1_555
C44 C49 1_555 1_555
C45 H33 1_555 1_555
C45 C46 1_555 1_555
C46 C47 1_555 1_555
C47 H34 1_555 1_555
C47 C48 1_555 1_555
C48 H35 1_555 1_555
C48 C49 1_555 1_555
C49 H36 1_555 1_555
C50 C51 1_555 1_555
C51 C52 1_555 1_555
C51 C56 1_555 1_555
C52 C53 1_555 1_555
C53 H37 1_555 1_555
C53 C54 1_555 1_555
C54 H38 1_555 1_555
C54 C55 1_555 1_555
C55 H39 1_555 1_555
C55 C56 1_555 1_555
C56 H40 1_555 1_555

#END
